LAMMPS (24 Mar 2022)
# DPD Fluid

variable T    equal 1.0
variable rc   equal 1.0
variable rcD  equal 1.2

units            lj
boundary     p p p
atom_style       atomic
dimension    3
newton       on
comm_modify  vel yes

### create box and configuration
variable     L equal 5.0
lattice      fcc 3.0
Lattice spacing in x,y,z = 1.1006424 1.1006424 1.1006424
region       simBox block 0 5 0 5 0 5
create_box   2 simBox
Created orthogonal box = (0 0 0) to (5.5032121 5.5032121 5.5032121)
create_atoms 1 random 100 12456 simBox
Created 100 atoms
create_atoms 2 random 100 13245 simBox
Created 100 atoms
mass         1 1.0
mass         2 2.0
###

pair_style       dpd/ext 1 1 3854262

timestep     0.01
run_style    verlet

velocity all create 1 68768932

thermo_style custom step time temp press
thermo       100

fix 1 all    nve

run          5000
  generated 0 of 1 mixed pair_coeff terms from geometric mixing rule
  update every 1 steps, delay 10 steps, check yes
Step          Time           Temp          Press
0   0              1              9.2729849
Averages over the last 26 of 51 rows, steps 2500 to 5000:
Temp Press
1.01723 7.49111
Loop time of 0.320182 on 4 procs for 5000 steps with 200 atoms
