LAMMPS (4 May 2022)

units real
atom_style hybrid sphere bond

lattice         sc 5.0
Lattice spacing in x,y,z = 5 5 5
region          box block 50 250 50 250 50 250 units box
create_box      2 box
Created orthogonal box = (50 50 50) to (250 250 250)
region particles block 110 190 110 190 110 190 units box
create_atoms    1 region particles
Created 4913 atoms
region          lid block 100 110 50 250 50 250 units box
group           mobile type 1
4913 atoms in group mobile
set type 1 diameter 7.0
Setting atom values ...
  4913 settings made for diameter

# create_atoms    2 mesh open_box.stl meshmode bisect 4.0 units box
create_atoms    2 mesh open_box.stl meshmode qrand 0.1 units box
Reading STL object Open Box from file open_box.stl
  read 10 triangles with 2000.00 atoms per triangle added in quasi-random mode
Created 5000 atoms
group           mesh type 2
5000 atoms in group mesh

pair_style lj/cut 8.76
pair_coeff      1 1 0.2339 3.504
pair_coeff      1 2 0.2339 7.008 $(7.008*2^(1.0/6.0))
pair_coeff      1 2 0.2339 7.008 7.8662140345520858986
pair_coeff      2 2 0.0    1.0
mass *  39.95

neigh_modify exclude type 2 2

timestep 1.0

run 0 post no
Generated 0 of 1 mixed pair_coeff terms from geometric mixing rule
  update every 1 steps, delay 10 steps, check yes
Step          Temp          E_pair         E_mol          TotEng         Press
0   0             -1778.6527      0             -1778.6527     -27.271044
Loop time of 2.8725e-06 on 4 procs for 0 steps with 9913 atoms

fix dir  mobile oneway 10 lid x
fix move mobile nve
fix load all balance 1000 1.1 shift xyz 10 1.01 weight neigh 0.5 weight group 2 mesh 0.1 mobile 1.0
fix rot  mesh move rotate 150.0 150.0 150.0 1.0 0.0 0.0 500000.0 units box

reset_timestep 0 time 0.0
velocity mobile create 150.0 54634234

compute ptemp mobile temp
thermo_modify temp ptemp

thermo 200
compute ke all ke/atom
#dump 2 all movie 200 mesh.mkv c_ke radius size 960 1440 zoom 1.5 box no 0.0 view 120 180
#dump_modify 2 bitrate 4000 framerate 12 color orange 1.0 0.5 0.0 amap min max cf 0.0 6 min blue 0.1 fuchsia 0.2 red 0.4 orange 0.6 yellow max white
#dump 1 all custom 500 open_box.lammpstrj id type mol x y z vx vy vz

run 5000
Generated 0 of 1 mixed pair_coeff terms from geometric mixing rule
Step          Temp          E_pair         E_mol          TotEng         Press          Volume
0   150           -1778.6527      0              417.60814     -14.721534      8000000
Averages over the last 13 of 26 rows, steps 2600 to 5000:
Temp E_pair E_mol TotEng Press Volume
186.3 -2398.32 0 329.435 15.3758 8e+06
Loop time of 3.41925 on 4 procs for 5000 steps with 9913 atoms
