LAMMPS (4 May 2022)

units real
lattice         sc 5.0
Lattice spacing in x,y,z = 5 5 5
region          box block -110 60 -30 220 -90 130  units box
create_box      2 box
Created orthogonal box = (-110 -30 -90) to (60 220 130)
region          particles cylinder y 0 -30 47 130 190 units box
create_atoms    1 region particles
Created 3601 atoms
region          lid cylinder y 0 -30 47 190 200 units box
group           mobile type 1
3601 atoms in group mobile

create_atoms    2 mesh race_track.stl units box
Reading STL object Georgs Murmelbahn from file race_track.stl
  read 9472 triangles with 1.00 atoms per triangle added in recursive bisection mode
Created 9472 atoms
group           mesh type 2
9472 atoms in group mesh

mass * 39.95
pair_style lj/cut 8.76
pair_coeff      1 1 0.2339 3.504
pair_coeff      1 2 0.2339 7.008 $(7.008*2^(1.0/6.0))
pair_coeff      1 2 0.2339 7.008 7.8662140345520858986
pair_coeff      2 2 0.0    1.0

balance 1.1 shift xyz 10 1.01
Balancing ...
Generated 0 of 1 mixed pair_coeff terms from geometric mixing rule
  update every 1 steps, delay 10 steps, check yes

neigh_modify exclude type 2 2
timestep 1.0

fix track mesh setforce 0.0 0.0 0.0
fix pull mobile addforce 0.0 -0.05 0.0 region particles
fix dir  mobile oneway 10 lid -y
fix move mobile nve
fix load all balance 1000 1.1 shift xyz 10 1.01 weight neigh 0.5 weight group 2 mesh 0.1 mobile 1.0

minimize 0.0 0.0 1000 1000
Generated 0 of 1 mixed pair_coeff terms from geometric mixing rule
Step          Temp          E_pair         E_mol          TotEng         Press          Volume
0   0              737062.81      0              737062.81      21986.781      9350000
Loop time of 0.517938 on 1 procs for 67 steps with 13073 atoms

Minimization stats:
  Stopping criterion = linesearch alpha is zero
  Energy initial, next-to-last, final =
  Force two-norm initial, final = 689296.27 22.226599
  Force max component initial, final = 336546.89 0.90593277
  Final line search alpha, max atom move = 1.2850327e-11 1.1641532e-11
  Iterations, force evaluations = 67 393

reset_timestep 0 time 0.0

velocity mobile create 150.0 54634234
compute ptemp mobile temp
thermo_modify temp ptemp

thermo 1000

# dump 1 all atom 1000 race.lammpstrj
run 10000
Generated 0 of 1 mixed pair_coeff terms from geometric mixing rule
Step          Temp          E_pair         E_mol          TotEng         Press          Volume
0   150           -2063.91        0             -454.27256      2.8467694      9350000
Averages over the last 6 of 11 rows, steps 5000 to 10000:
Temp E_pair E_mol TotEng Press Volume
383.538 -2143.47 0 1972.25 39.7875 9.35e+06
Loop time of 12.1711 on 1 procs for 10000 steps with 13073 atoms
