LAMMPS (4 May 2022)
units           real
atom_style      atomic

# data file with one atom type
read_data       data.spce
Reading data file ...
  orthogonal box = (0 0 0) to (31.0648 31.0648 31.0648)
  reading atoms ...
  1000 atoms

pair_style      hybrid/overlay table linear 1200 threebody/table

#pair coefficients
pair_coeff      1 1 table table_CG_CG.txt VOTCA
pair_coeff      * * threebody/table spce.3b type

fix             1 all nvt temp 300.0 300.0 200.0

velocity        all create 300 432567 dist uniform loop geom mom yes
timestep        2.0

thermo          100
#dump            2 all custom 100 dump.spce id type x y z fx fy fz

run             1000
  update every 1 steps, delay 10 steps, check yes
Step          Temp          E_pair         E_mol          TotEng         Press
0   300           -5377.8719      0             -4484.5232     -320.10184
Averages over the last 6 of 11 rows, steps 500 to 1000:
Temp E_pair E_mol TotEng Press
302.038 -5457.25 0 -4557.83 459.88
Loop time of 5.15787 on 1 procs for 1000 steps with 1000 atoms
