LAMMPS (4 May 2022)
units           real
atom_style      atomic

read_data       data.spce
Reading data file ...
  orthogonal box = (0 0 0) to (31.0648 31.0648 31.0648)
  reading atoms ...
  1000 atoms

pair_style      hybrid/overlay table linear 1200 sw/angle/table

pair_coeff      1 1 table table_CG_CG.txt VOTCA
pair_coeff      * * sw/angle/table spce.sw type

fix             1 all nvt temp 300.0 300.0 200.0

velocity        all create 300 432567 dist uniform mom yes

timestep        2.0

thermo          100
#dump            2 all custom 10 spce_sw.dump id type x y z fx fy fz

run             1000
  update every 1 steps, delay 10 steps, check yes
Step          Temp          E_pair         E_mol          TotEng         Press
0   300           -4572.9581      0             -3679.6093     -402.23914
Averages over the last 6 of 11 rows, steps 500 to 1000:
Temp E_pair E_mol TotEng Press
300.281 -4476.97 0 -3582.78 264.387
Loop time of 1.57073 on 4 procs for 1000 steps with 1000 atoms
