LAMMPS (17 Feb 2022)
package gpu 0

units        real
boundary p p p

atom_style   full
bond_style   harmonic
angle_style  harmonic

special_bonds lj/coul 0.0 0.0 0.5

pair_style   lj/cut/coul/long 12.0 12.0
pair_modify tail no
kspace_style pppm 1.0e-5

read_data data.spce # 8x8x16 SPCE molecules in a 30x30x100 box
Reading data file ...
  orthogonal box = (0 0 0) to (30 30 100)
  reading atoms ...
  3072 atoms
  scanning bonds ...
  scanning angles ...
  reading bonds ...
  2048 bonds
  reading angles ...
  1024 angles
Finding 1-2 1-3 1-4 neighbors ...
     2 = max # of 1-2 neighbors
     1 = max # of 1-3 neighbors
     1 = max # of 1-4 neighbors
     2 = max # of special neighbors

bond_coeff   1    517.630258   1.0
angle_coeff  1    37.950526    109.47
pair_coeff   1 1  0.1553  3.166 # O O
pair_coeff   1 2  0.0     1.0   # O H
pair_coeff   2 2  0.0     1.0   # H H

# don't use fix shake with compute fep/ta
# fix SHAKE all shake 0.0001 20 0 b 1

neighbor 2.0 bin
# neigh_modify delay 0 every 1 check yes

timestep 1.0

variable TK equal 300.0
compute TA all fep/ta 300 xy 1.0005

velocity all create 300 12345

thermo_style custom step temp press etotal pe c_TA[*]
thermo 5000

fix NVT all nvt temp 300 300 100
run 300000

CITE-CITE-CITE-CITE-CITE-CITE-CITE-CITE-CITE-CITE-CITE-CITE-CITE

Your simulation uses code contributions which should be cited:

- GPU package (short-range, long-range and three-body potentials):

@Article{Brown11,
 author = {W. M. Brown, P. Wang, S. J. Plimpton, A. N. Tharrington},
 title = {Implementing Molecular Dynamics on Hybrid High Performance Computers - Short Range Forces},
 journal = {Comp.~Phys.~Comm.},
 year =    2011,
 volume =  182,
 pages =   {898--911}
}

@Article{Brown12,
 author = {W. M. Brown, A. Kohlmeyer, S. J. Plimpton, A. N. Tharrington},
 title = {Implementing Molecular Dynamics on Hybrid High Performance Computers - Particle-Particle Particle-Mesh},
 journal = {Comp.~Phys.~Comm.},
 year =    2012,
 volume =  183,
 pages =   {449--459}
}

@Article{Brown13,
 author = {W. M. Brown, Y. Masako},
 title = {Implementing Molecular Dynamics on Hybrid High Performance Computers â€“ Three-Body Potentials},
 journal = {Comp.~Phys.~Comm.},
 year =    2013,
 volume =  184,
 pages =   {2785--2793}
}

@Article{Trung15,
 author = {T. D. Nguyen, S. J. Plimpton},
 title = {Accelerating dissipative particle dynamics simulations for soft matter systems},
 journal = {Comput.~Mater.~Sci.},
 year =    2015,
 volume =  100,
 pages =   {173--180}
}

@Article{Trung17,
 author = {T. D. Nguyen},
 title = {GPU-accelerated Tersoff potentials for massively parallel Molecular Dynamics simulations},
 journal = {Comp.~Phys.~Comm.},
 year =    2017,
 volume =  212,
 pages =   {113--122}
}

@Article{Nikolskiy19,
 author = {V. Nikolskiy, V. Stegailov},
 title = {GPU acceleration of four-site water models in LAMMPS},
 journal = {Proceeding of the International Conference on Parallel Computing (ParCo 2019), Prague, Czech Republic},
 year =    2019
}

CITE-CITE-CITE-CITE-CITE-CITE-CITE-CITE-CITE-CITE-CITE-CITE-CITE

PPPM initialization ...
  G vector (1/distance) = 0.24270009
  grid = 20 20 50
  stencil order = 5
  estimated absolute RMS force accuracy = 0.0037271514
  estimated relative force accuracy = 1.1224206e-05
  3d grid and FFT values/proc = 40824 20000
  generated 0 of 1 mixed pair_coeff terms from geometric mixing rule
FEP/TA settings ...
  temperature = 300.000000
  scale factor = 1.000500
  tail no
Step         Temp        Press        TotEng       PotEng      c_TA[1]      c_TA[2]      c_TA[3]
0   300          5742.8831    8061.6965    5315.4762   -10.940045    93249708     0.45
Averages over the last 31 of 61 rows, steps 150000 to 300000:
Temp Press TotEng PotEng c_TA[1] c_TA[2] c_TA[3]
299.413 -154.94 -8616.59 -11357.4 0.125293 0.952501 0.45
Loop time of 706.805 on 1 procs for 300000 steps with 3072 atoms

reset_timestep 0

variable gamma_v equal 100*(pzz-0.5*(pxx+pyy))/2/100 # surface tension via the mechanical route

fix FEP all ave/time 100 1000 100000 c_TA[*] v_gamma_v ave running file spce.fep.ta

run 2000000
PPPM initialization ...
  G vector (1/distance) = 0.24270009
  grid = 20 20 50
  stencil order = 5
  estimated absolute RMS force accuracy = 0.0037271514
  estimated relative force accuracy = 1.1224206e-05
  3d grid and FFT values/proc = 40824 20000
  generated 0 of 1 mixed pair_coeff terms from geometric mixing rule
Step         Temp        Press        TotEng       PotEng      c_TA[1]      c_TA[2]      c_TA[3]
0   302.48853    186.71327   -8655.8918   -11424.892    0.20325452   0.71110271   0.45
Averages over the last 201 of 401 rows, steps 1000000 to 2000000:
Temp Press TotEng PotEng c_TA[1] c_TA[2] c_TA[3]
299.761 -96.141 -8639.83 -11383.9 0.181612 0.837292 0.45
Loop time of 4787.7 on 1 procs for 2000000 steps with 3072 atoms
