LAMMPS (17 Feb 2022)
# compute stress/spherical for a spherical droplet

units           lj
atom_style      atomic

lattice         fcc 0.8442
Lattice spacing in x,y,z = 1.6795962 1.6795962 1.6795962
region          box block -10 10 -10 10 -10 10
region    liquid sphere 0 0 0 5
create_box      1 box
Created orthogonal box = (-16.795962 -16.795962 -16.795962) to (16.795962 16.795962 16.795962)
create_atoms    1 region liquid
Created 2123 atoms
mass            1 1.0

velocity        all create 0.65 87287 loop geom

pair_style      lj/cut 2.5
pair_coeff      1 1 1.0 1.0 2.5

neighbor        0.3 bin
neigh_modify    every 20 delay 0 check no

fix             1 all nvt temp 0.65 0.65 0.2

#dump           id all atom 50 dump.sphere

#dump           2 all image 25 image.*.jpg type type #               axes yes 0.8 0.02 view 60 -30
#dump_modify    2 pad 3

#dump           3 all movie 25 movie.mpg type type #               axes yes 0.8 0.02 view 60 -30
#dump_modify    3 pad 3

fix 2 all recenter 0 0 0 units lattice
compute p all stress/spherical 0 0 0 0.25 15
Adjusting bin width for compute stress/spherical from 0.250000 to 0.245902
fix 3 all ave/time 100 1 100 c_p[*] file sphere.out mode vector

thermo          50
thermo_style custom step temp epair emol etotal press c_p[15][3] c_p[15][4] c_p[15][5] c_p[15][6] c_p[15][7] c_p[15][8]

run             1000

CITE-CITE-CITE-CITE-CITE-CITE-CITE-CITE-CITE-CITE-CITE-CITE-CITE

Your simulation uses code contributions which should be cited:

- compute stress/spherical:

@article{galteland2022defining,
title={Defining the pressures of a fluid in a nanoporous, heterogeneous medium},
author={Galteland, Olav and Rauter, Michael T and Varughese, Kevin K and Bedeaux, Dick and Kjelstrup, Signe},
journal={arXiv preprint arXiv:2201.13060},
year={2022}
}

CITE-CITE-CITE-CITE-CITE-CITE-CITE-CITE-CITE-CITE-CITE-CITE-CITE

  generated 0 of 0 mixed pair_coeff terms from geometric mixing rule
  update every 20 steps, delay 0 steps, check no
Step Temp E_pair E_mol TotEng Press c_p[15][3] c_p[15][4] c_p[15][5] c_p[15][6] c_p[15][7] c_p[15][8]
0         0.65    -5.982005            0   -5.0074642  -0.32476388   0.35627939   0.62462251   0.46815062   -6.0757313   -6.2674721   -6.2664951
Averages over the last 11 of 21 rows, steps 500 to 1000:
Temp E_pair E_mol TotEng Press c_p[15][3] c_p[15][4] c_p[15][5] c_p[15][6] c_p[15][7] c_p[15][8]
0.638129 -5.02792 0 -4.07118 -0.00333076 0.674901 0.604791 0.533454 -0.538365 -1.07606 -0.868028
Loop time of 1.69288 on 1 procs for 1000 steps with 2123 atoms
