LAMMPS (24 Mar 2022)
# Coarse-Grained SPC/E Water

variable T   equal 300.0
variable rc  equal   9.0
variable rcD equal  10.0

units            real
boundary     p p p
atom_style   atomic
dimension    3
newton       on
comm_modify  vel yes

read_data    cg_spce.data
Reading data file ...
  orthogonal box = (0 0 0) to (40.31 40.31 40.31)
  reading atoms ...
  2180 atoms

pair_style       hybrid/overlay table spline 1000 dpd/ext/tstat 300 300 9 385262

pair_coeff   1 1 table cg_spce_table.pot VOTCA 9
pair_coeff   1 1 dpd/ext/tstat 20.0 10.0 0.5 0.5 10

timestep    1.0
run_style   verlet

velocity all create 300 68768932

thermo_style custom step time temp press
thermo       100

fix 1 all    nve

run          1000
  generated 0 of 0 mixed pair_coeff terms from geometric mixing rule
  update every 1 steps, delay 10 steps, check yes
Step          Time           Temp          Press
0   0              300            7353.4129
Averages over the last 6 of 11 rows, steps 500 to 1000:
Temp Press
298.12 7343.95
Loop time of 28.1058 on 1 procs for 1000 steps with 2180 atoms
