LAMMPS (4 May 2022)
# sample LAMMPS input script for thermal conductivity of liquid LJ
# use fix ehex to add/subtract energy from 2 regions

# settings

variable        x equal 10
variable        y equal 10
variable        z equal 20

variable        rho equal 0.6
variable        t equal 1.35
variable        rc equal 2.5

#variable       rho equal 0.85
#variable        t equal 0.7
#variable       rc equal 3.0

# setup problem

units           lj
atom_style      atomic

lattice         fcc 0.6
Lattice spacing in x,y,z = 1.8820721 1.8820721 1.8820721
region          box block 0 $x 0 $y 0 $z
region          box block 0 10 0 $y 0 $z
region          box block 0 10 0 10 0 $z
region          box block 0 10 0 10 0 20
create_box      1 box
Created orthogonal box = (0 0 0) to (18.820721 18.820721 37.641441)
create_atoms    1 box
Created 8000 atoms
mass            1 1.0

velocity        all create $t 87287
velocity        all create 1.35 87287

pair_style      lj/cut 2.5
pair_coeff      1 1 1.0 1.0

neighbor        0.3 bin
neigh_modify    delay 0 every 1

# heat layers

region          hot block INF INF INF INF 0 1
region          cold block  INF INF INF INF 10 11
compute         Thot all temp/region hot
compute         Tcold all temp/region cold

# 1st equilibration run

fix             1 all nvt temp $t $t 0.5
fix             1 all nvt temp 1.35 $t 0.5
fix             1 all nvt temp 1.35 1.35 0.5
thermo          100
run             1000
Generated 0 of 0 mixed pair_coeff terms from geometric mixing rule
  update every 1 steps, delay 0 steps, check yes
Step          Temp          E_pair         E_mol          TotEng         Press
0   1.35          -4.1241917      0             -2.0994448     -3.1961612
Averages over the last 6 of 11 rows, steps 500 to 1000:
Temp E_pair E_mol TotEng Press
1.35275 -3.70205 0 -1.67318 0.863349
Loop time of 0.925673 on 8 procs for 1000 steps with 8000 atoms

velocity        all scale $t
velocity        all scale 1.35

unfix           1

# 2nd equilibration run

fix             1 all nve
fix             hot all ehex 1 100.0 region hot
fix             cold all ehex 1 -100.0 region cold

thermo_style    custom step temp c_Thot c_Tcold
thermo_modify   colname c_Thot Temp_hot colname c_Tcold Temp_cold
thermo          1000
run             10000
Generated 0 of 0 mixed pair_coeff terms from geometric mixing rule
Step          Temp         Temp_hot      Temp_cold
1000   1.35           1.431295       1.2955644
Averages over the last 6 of 11 rows, steps 6000 to 11000:
Temp Temp_hot Temp_cold
1.36875 1.70578 1.14958
Loop time of 10.4087 on 8 procs for 10000 steps with 8000 atoms

# thermal conductivity calculation

compute         ke all ke/atom
variable        temp atom c_ke/1.5

compute         layers all chunk/atom bin/1d z lower 0.05 units reduced
fix             2 all ave/chunk 10 100 1000 layers v_temp file profile.ehex

variable        tdiff equal f_2[1][3]-f_2[11][3]
fix             ave all ave/time 1 1 1000 v_tdiff ave running start 13000

variable kappa equal (100/(lx*ly)/2.0)*(lz/2.0)/f_ave

thermo_style    custom step temp c_Thot c_Tcold v_tdiff f_ave
thermo_modify   colname c_Thot Temp_hot colname c_Tcold Temp_cold                 colname v_tdiff dTemp_step colname f_ave dTemp

run             20000
Generated 0 of 0 mixed pair_coeff terms from geometric mixing rule
Step          Temp         Temp_hot      Temp_cold      dTemp_step       dTemp
11000   1.3794051      1.6903393      1.0515688      0              0
Averages over the last 11 of 21 rows, steps 21000 to 31000:
Temp Temp_hot Temp_cold dTemp_step dTemp
1.38888 1.89747 1.08026 0.805031 0.754431
Loop time of 23.253 on 8 procs for 20000 steps with 8000 atoms

print           "Running average thermal conductivity: $(v_kappa:%.2f)"
Running average thermal conductivity: 3.45
