LAMMPS (17 Feb 2022)
# Simple rigid body system

units           lj
atom_style      atomic

pair_style      lj/cut 2.5

read_data       data.rigid
Reading data file ...
  orthogonal box = (-12 -12 -12) to (12 12 12)
  reading atoms ...
  81 atoms

velocity        all create 100.0 4928459

# unconnected bodies

group           clump1 id <> 1 9
9 atoms in group clump1
group           clump2 id <> 10 18
9 atoms in group clump2
group           clump3 id <> 19 27
9 atoms in group clump3
group           clump4 id <> 28 36
9 atoms in group clump4
group           clump5 id <> 37 45
9 atoms in group clump5
group           clump6 id <> 46 54
9 atoms in group clump6
group           clump7 id <> 55 63
9 atoms in group clump7
group           clump8 id <> 64 72
9 atoms in group clump8
group           clump9 id <> 73 81
9 atoms in group clump9

fix 1 all poems file unconnected-bodies.dat
9 clusters, 9 bodies, 0 joints, 81 atoms

neigh_modify    exclude group clump1 clump1
neigh_modify    exclude group clump2 clump2
neigh_modify    exclude group clump3 clump3
neigh_modify    exclude group clump4 clump4
neigh_modify    exclude group clump5 clump5
neigh_modify    exclude group clump6 clump6
neigh_modify    exclude group clump7 clump7
neigh_modify    exclude group clump8 clump8
neigh_modify    exclude group clump9 clump9

thermo          100

#dump           1 all atom 50 dump.rigid.poems

#dump           2 all image 100 image.*.jpg type type #               axes yes 0.8 0.02 view 60 -30
#dump_modify    2 pad 5

#dump           3 all movie 100 movie.mpg type type #               axes yes 0.8 0.02 view 60 -30
#dump_modify    3 pad 5

timestep        0.0001
thermo          50
run             10000

CITE-CITE-CITE-CITE-CITE-CITE-CITE-CITE-CITE-CITE-CITE-CITE-CITE

Your simulation uses code contributions which should be cited:

- fix poems command:

@Article{Mukherjee08,
 author = {R. M. Mukherjee, P. S. Crozier, S. J. Plimpton, K. S. Anderson},
 title = {Substructured molecular dynamics using multibody dynamics algorithms},
 journal = {Intl.~J.~Non-linear Mechanics},
 year =    2008,
 volume =  43,
 pages =   {1045--1055}
}

CITE-CITE-CITE-CITE-CITE-CITE-CITE-CITE-CITE-CITE-CITE-CITE-CITE

  generated 0 of 0 mixed pair_coeff terms from geometric mixing rule
  update every 1 steps, delay 10 steps, check yes
Step Temp E_pair E_mol TotEng Press
0    115.29439    5235.9179            0    5272.2142   -2.7403788
Averages over the last 101 of 201 rows, steps 5000 to 10000:
Temp E_pair E_mol TotEng Press
16735.2 1.02589 0 5269.52 12.0384
Loop time of 2.36483 on 4 procs for 10000 steps with 81 atoms
