LAMMPS (17 Feb 2022)
# Simple rigid body system

units           lj
atom_style      atomic

pair_style      lj/cut 2.5

read_data       data.rigid
Reading data file ...
  orthogonal box = (-12 -12 -12) to (12 12 12)
  reading atoms ...
  81 atoms

velocity        all create 100.0 4928459

# 1 chain of connected bodies

group           clump1 id <> 1 9
9 atoms in group clump1
group           clump2 id <> 9 18
10 atoms in group clump2
group           clump3 id <> 18 27
10 atoms in group clump3
group           clump4 id <> 27 36
10 atoms in group clump4
group           clump5 id <> 36 45
10 atoms in group clump5
group           clump6 id <> 45 54
10 atoms in group clump6
group           clump7 id <> 54 63
10 atoms in group clump7
group           clump8 id <> 63 72
10 atoms in group clump8
group           clump9 id <> 72 81
10 atoms in group clump9

fix 1 all poems file connected-bodies.dat
1 clusters, 9 bodies, 8 joints, 81 atoms

neigh_modify    exclude group clump1 clump1
neigh_modify    exclude group clump2 clump2
neigh_modify    exclude group clump3 clump3
neigh_modify    exclude group clump4 clump4
neigh_modify    exclude group clump5 clump5
neigh_modify    exclude group clump6 clump6
neigh_modify    exclude group clump7 clump7
neigh_modify    exclude group clump8 clump8
neigh_modify    exclude group clump9 clump9

thermo          100

#dump           1 all atom 50 dump.rigid.poems

#dump           2 all image 100 image.*.jpg type type #               axes yes 0.8 0.02 view 60 -30
#dump_modify    2 pad 5

#dump           3 all movie 100 movie.mpg type type #               axes yes 0.8 0.02 view 60 -30
#dump_modify    3 pad 5

timestep        0.0001
thermo          50
run             10000

CITE-CITE-CITE-CITE-CITE-CITE-CITE-CITE-CITE-CITE-CITE-CITE-CITE

Your simulation uses code contributions which should be cited:

- fix poems command:

@Article{Mukherjee08,
 author = {R. M. Mukherjee, P. S. Crozier, S. J. Plimpton, K. S. Anderson},
 title = {Substructured molecular dynamics using multibody dynamics algorithms},
 journal = {Intl.~J.~Non-linear Mechanics},
 year =    2008,
 volume =  43,
 pages =   {1045--1055}
}

CITE-CITE-CITE-CITE-CITE-CITE-CITE-CITE-CITE-CITE-CITE-CITE-CITE

  generated 0 of 0 mixed pair_coeff terms from geometric mixing rule
  update every 1 steps, delay 10 steps, check yes
Step Temp E_pair E_mol TotEng Press
0     217.7783    3430.3907            0    3466.6871   -2.7403788
Averages over the last 101 of 201 rows, steps 5000 to 10000:
Temp E_pair E_mol TotEng Press
19575.7 425.537 0 3688.15 1.44264
Loop time of 2.28812 on 1 procs for 10000 steps with 81 atoms
