LAMMPS (17 Feb 2022)
#===========================================================================#
#  Toy car driving down a system with a floor and ceiling.                  #
#                                                                           #
#  The car is first constructed by condensing particles onto various regions#
#  that make up the car's parts.  Then the car moves in a lattice Boltzmann #
#  fluid.  This requires compilation with the RIGID and LATBOLTZ packages   #
#  You will need to uncomment the dump options to get useful output.        #
#===========================================================================#

units cgs
dimension 3
boundary p p f
atom_style atomic

#-------------------------------------------------------------------------#
# Set up the simulation box
#-------------------------------------------------------------------------#
variable dx equal 1.5

variable more equal 6.5

variable xl equal "-32*v_dx"
variable xh equal "32*v_dx"
variable yl equal "-60*v_dx"
variable yh equal "420*v_dx"
variable zl equal "-6*v_dx"
variable zh equal "58*v_dx"

region mybox block -48 48 -90 630 -9 87
create_box 14 mybox
Created orthogonal box = (-48 -90 -9) to (48 630 87)

#-------------------------------------------------------------------------#
# Creating the regions and filling them with atoms assigned to surge_group
#-------------------------------------------------------------------------#
variable density equal 0.001184

variable sigma equal  "1.2*v_dx"            #"1.2*v_dx"
variable rcutlj equal "v_sigma*2^(1/6)"
variable rcutlj93 equal "v_sigma*(2/5)^(1/6)"

#-------------------------------------------------------------------------#
# Creating the cylinder
#-------------------------------------------------------------------------#
variable c1 equal 12.5
variable c2 equal -1.5
variable radius equal 6.0
variable lo equal 9.5
variable hi equal 12.5

region mycylinderinside1 cylinder x 12.5 -1.5 6 9.5 12.5

variable n_nodes_Cy_1 equal "round(v_more*0.28*((2*PI*v_radius*(v_hi-v_lo))+(2*PI*(v_radius)^2)))"
create_atoms 1 random 618 1234 mycylinderinside1 units box
Created 618 atoms

variable radius_2 equal "v_radius + v_rcutlj93"
variable hi_2 equal "v_hi + 2*v_rcutlj93"
variable lo_2 equal "v_lo - v_rcutlj93"
region mycylinder1 cylinder x 12.5 -1.5 7.5450735940786 7.9549264059214 15.5901471881572
group gcylinder1 region mycylinder1
618 atoms in group gcylinder1
#-------------------------------------------------------------------------#
# Creating the cylinder
#-------------------------------------------------------------------------#
variable c1 equal -9.0
variable c2 equal -1.5
variable radius equal 6.0
variable lo equal 9.5
variable hi equal 12.5

region mycylinderinside2 cylinder x -9 -1.5 6 9.5 12.5

variable n_nodes_Cy_2 equal "round(v_more*0.28*((2*PI*v_radius*(v_hi-v_lo))+(2*PI*(v_radius)^2)))"
create_atoms 2 random 618 1234 mycylinderinside2 units box
Created 618 atoms

variable radius_2 equal "v_radius + v_rcutlj93"
variable hi_2 equal "v_hi + 2*v_rcutlj93"
variable lo_2 equal "v_lo - v_rcutlj93"
region mycylinder2 cylinder x -9 -1.5 7.5450735940786 7.9549264059214 15.5901471881572
group gcylinder2 region mycylinder2
618 atoms in group gcylinder2
#-------------------------------------------------------------------------#
# Creating the cylinder
#-------------------------------------------------------------------------#
variable c1 equal -9.0
variable c2 equal -1.5
variable radius equal 6.0
variable lo equal -12.5
variable hi equal -9.5

region mycylinderinside3 cylinder x -9 -1.5 6 -12.5 -9.5

variable n_nodes_Cy_3 equal "round(v_more*0.28*((2*PI*v_radius*(v_hi-v_lo))+(2*PI*(v_radius)^2)))"
create_atoms 3 random 618 1234 mycylinderinside3 units box
Created 618 atoms

variable radius_2 equal "v_radius + v_rcutlj93"
variable hi_2 equal "v_hi + v_rcutlj93"
variable lo_2 equal "v_lo - 2*v_rcutlj93"
region mycylinder3 cylinder x -9 -1.5 7.5450735940786 -15.5901471881572 -7.9549264059214
group gcylinder3 region mycylinder3
618 atoms in group gcylinder3
#-------------------------------------------------------------------------#
# Creating the cylinder
#-------------------------------------------------------------------------#
variable c1 equal 12.0
variable c2 equal -1.5
variable radius equal 6.0
variable lo equal -12.5
variable hi equal -9.5

region mycylinderinside4 cylinder x 12 -1.5 6 -12.5 -9.5

variable n_nodes_Cy_4 equal "round(v_more*0.28*((2*PI*v_radius*(v_hi-v_lo))+(2*PI*(v_radius)^2)))"
create_atoms 4 random 618 1234 mycylinderinside4 units box
Created 618 atoms

variable radius_2 equal "v_radius + v_rcutlj93"
variable hi_2 equal "v_hi + v_rcutlj93"
variable lo_2 equal "v_lo - 2*v_rcutlj93"
region mycylinder4 cylinder x 12 -1.5 7.5450735940786 -15.5901471881572 -7.9549264059214
group gcylinder4 region mycylinder4
618 atoms in group gcylinder4

#-------------------------------------------------------------------------#
# Creating the prism
#-------------------------------------------------------------------------#
variable xlo1 equal -5.0
variable xhi1 equal 5.0
variable ylo1 equal -15.0
variable yhi1 equal 15.0
variable zlo1 equal -6.0
variable zhi1 equal 6.0

region myprisminside1 block -5 5 -15 15 -6 6
variable n_nodes_P_1 equal "(round(v_more*3.4*(6*(10.0)^2)/(PI*v_dx^2)))"
create_atoms 5 random 1876 1234 myprisminside1 units box
Created 1876 atoms

variable xlo1_2 equal "v_xlo1 - v_rcutlj93/2"
variable xhi1_2 equal "v_xhi1 + v_rcutlj93/2"
variable ylo1_2 equal "v_ylo1 - v_rcutlj93/2"
variable yhi1_2 equal "v_yhi1 + v_rcutlj93/2"
variable zlo1_2 equal "v_zlo1 - v_rcutlj93/2"
variable zhi1_2 equal "v_zhi1 + v_rcutlj93/2"

region myprism1 block -5.7725367970393 5.7725367970393 -15.7725367970393 15.7725367970393 -6.7725367970393 6.7725367970393
group gprism1 region myprism1
1876 atoms in group gprism1

#-------------------------------------------------------------------------#
# Creating the rear wing
#-------------------------------------------------------------------------#
variable xlo2 equal -10.0
variable xhi2 equal 10.0
variable ylo2 equal 14.0
variable yhi2 equal 22.0
variable zlo2 equal 10.0
variable zhi2 equal 12.0

region myprisminside2 block -10 10 14 22 10 12
variable n_nodes_P_2 equal "(round(v_more*0.93*(6*(7.0)^2)/(PI*v_dx^2)))"
create_atoms 6 random 251 1234 myprisminside2 units box
Created 251 atoms

variable xlo2_2 equal "v_xlo2 - v_rcutlj93/2"
variable xhi2_2 equal "v_xhi2 + v_rcutlj93/2"
variable ylo2_2 equal "v_ylo2 - v_rcutlj93/2"
variable yhi2_2 equal "v_yhi2 + v_rcutlj93/2"
variable zlo2_2 equal "v_zlo2 - v_rcutlj93/2"
variable zhi2_2 equal "v_zhi2 + v_rcutlj93/2"

region myprism2 block -10.7725367970393 10.7725367970393 13.2274632029607 22.7725367970393 9.2274632029607 12.7725367970393
group gprism2 region myprism2
251 atoms in group gprism2

#-------------------------------------------------------------------------#
# Creating the rear wing stand
#-------------------------------------------------------------------------#
variable xlo3 equal -2.0
variable xhi3 equal 2.0
variable ylo3 equal 17.0
variable yhi3 equal 19.0
variable zlo3 equal -2.0
variable zhi3 equal 7.0

region myprisminside3 block -2 2 17 19 -2 7
variable n_nodes_P_3 equal "(round(v_more*0.32*(6*(6.0)^2)/(PI*v_dx^2)))"
create_atoms 7 random 64 1234 myprisminside3 units box
Created 64 atoms

variable xlo3_2 equal "v_xlo3 - v_rcutlj93/2"
variable xhi3_2 equal "v_xhi3 + v_rcutlj93/2"
variable ylo3_2 equal "v_ylo3 - v_rcutlj93/2"
variable yhi3_2 equal "v_yhi3 + v_rcutlj93/2"
variable zlo3_2 equal "v_zlo3 - v_rcutlj93/2"
variable zhi3_2 equal "v_zhi3 + v_rcutlj93/2"

region myprism3 block -2.7725367970393 2.7725367970393 16.2274632029607 19.7725367970393 -2.7725367970393 7.7725367970393
group gprism3 region myprism3
64 atoms in group gprism3

#-------------------------------------------------------------------------#
# Creating the front wing
#-------------------------------------------------------------------------#
variable xlo4 equal -10.0
variable xhi4 equal 10.0
variable ylo4 equal -26.5
variable yhi4 equal -22.0
variable zlo4 equal -5.0
variable zhi4 equal -3.0

region myprisminside4 block -10 10 -26.5 -22 -5 -3
variable n_nodes_P_4 equal "(round(v_more*1.47*(6*(4.0)^2)/(PI*v_dx^2)))"
create_atoms 8 random 130 1234 myprisminside4 units box
Created 130 atoms

variable xlo4_2 equal "v_xlo4 - v_rcutlj93/2"
variable xhi4_2 equal "v_xhi4 + v_rcutlj93/2"
variable ylo4_2 equal "v_ylo4 - v_rcutlj93/2"
variable yhi4_2 equal "v_yhi4 + v_rcutlj93/2"
variable zlo4_2 equal "v_zlo4 - v_rcutlj93/2"
variable zhi4_2 equal "v_zhi4 + v_rcutlj93/2"

region myprism4 block -10.7725367970393 10.7725367970393 -27.2725367970393 -21.2274632029607 -5.7725367970393 -2.2274632029607
group gprism4 region myprism4
130 atoms in group gprism4

#-------------------------------------------------------------------------#
# Creating the front wing stand
#-------------------------------------------------------------------------#
variable xlo5 equal -4.0
variable xhi5 equal 4.0
variable ylo5 equal -20.0
variable yhi5 equal -18.0
variable zlo5 equal -5.0
variable zhi5 equal 3.0

region myprisminside5 block -4 4 -20 -18 -5 3
variable n_nodes_P_5 equal "(round(v_more*2.15*(6*(3.0)^2)/(PI*v_dx^2)))"
create_atoms 9 random 107 1234 myprisminside5 units box
Created 107 atoms

variable xlo5_2 equal "v_xlo5 - v_rcutlj93/2"
variable xhi5_2 equal "v_xhi5 + v_rcutlj93/2"
variable ylo5_2 equal "v_ylo5 - v_rcutlj93/2"
variable yhi5_2 equal "v_yhi5 + v_rcutlj93/2"
variable zlo5_2 equal "v_zlo5 - v_rcutlj93/2"
variable zhi5_2 equal "v_zhi5 + v_rcutlj93/2"

region myprism5 block -4.7725367970393 4.7725367970393 -20.7725367970393 -17.2274632029607 -5.7725367970393 3.7725367970393
group gprism5 region myprism5
107 atoms in group gprism5

#-------------------------------------------------------------------------#
# Creating the driver
#-------------------------------------------------------------------------#
variable radius2 equal 1.0
variable xloc equal 0.0
variable yloc equal 3.0
variable zloc equal 9.5

region mysphereinside2 sphere 0 3 9.5 1

variable n_nodes_S_2 equal "(round(v_more*2.0*(2*v_radius2^2/v_dx^2)))"
create_atoms 10 random 12 1234 mysphereinside2 units box
Created 12 atoms
variable radius2_2 equal "v_radius2 + v_rcutlj93"
region mysphere2 sphere 0 3 9.5 2.5450735940786
group gball2 region mysphere2
12 atoms in group gball2

#-------------------------------------------------------------------------#
# Creating the rear wing side
#-------------------------------------------------------------------------#
variable xlo5 equal 12.0
variable xhi5 equal 14.25
variable ylo5 equal 14.0
variable yhi5 equal 22.0
variable zlo5 equal 10.0
variable zhi5 equal 14.0

region myprisminside6 block 12 14.25 14 22 10 14
variable n_nodes_P_6 equal "(round(v_more*1.0*(6*(3.0)^2)/(PI*v_dx^2)))"
create_atoms 11 random 50 1234 myprisminside6 units box
Created 50 atoms

variable xlo5_2 equal "v_xlo5 - v_rcutlj93/2"
variable xhi5_2 equal "v_xhi5 + v_rcutlj93/2"
variable ylo5_2 equal "v_ylo5 - v_rcutlj93/2"
variable yhi5_2 equal "v_yhi5 + v_rcutlj93/2"
variable zlo5_2 equal "v_zlo5 - v_rcutlj93/2"
variable zhi5_2 equal "v_zhi5 + v_rcutlj93/2"

region myprism6 block 11.2274632029607 15.0225367970393 13.2274632029607 22.7725367970393 9.2274632029607 14.7725367970393
group gprism6 region myprism6
50 atoms in group gprism6

#-------------------------------------------------------------------------#
# Creating the rear wing side
#-------------------------------------------------------------------------#
variable xlo5 equal -14.25
variable xhi5 equal -12.0
variable ylo5 equal 14.0
variable yhi5 equal 22.0
variable zlo5 equal 10.0
variable zhi5 equal 14.0

region myprisminside7 block -14.25 -12 14 22 10 14
variable n_nodes_P_7 equal "(round(v_more*1.0*(6*(3.0)^2)/(PI*v_dx^2)))"
create_atoms 12 random 50 1234 myprisminside7 units box
Created 50 atoms

variable xlo5_2 equal "v_xlo5 - v_rcutlj93/2"
variable xhi5_2 equal "v_xhi5 + v_rcutlj93/2"
variable ylo5_2 equal "v_ylo5 - v_rcutlj93/2"
variable yhi5_2 equal "v_yhi5 + v_rcutlj93/2"
variable zlo5_2 equal "v_zlo5 - v_rcutlj93/2"
variable zhi5_2 equal "v_zhi5 + v_rcutlj93/2"

region myprism7 block -15.0225367970393 -11.2274632029607 13.2274632029607 22.7725367970393 9.2274632029607 14.7725367970393
group gprism7 region myprism7
50 atoms in group gprism7

#-------------------------------------------------------------------------#
# Creating the front wing side
#-------------------------------------------------------------------------#
variable xlo5 equal 12.0
variable xhi5 equal 14.25
variable ylo5 equal -26.0
variable yhi5 equal -20.0
variable zlo5 equal -5.0
variable zhi5 equal -1.0

region myprisminside8 block 12 14.25 -26 -20 -5 -1
variable n_nodes_P_8 equal "(round(v_more*1.8*(6*(2.0)^2)/(PI*v_dx^2)))"
create_atoms 11 random 40 1234 myprisminside8 units box
Created 40 atoms

variable xlo5_2 equal "v_xlo5 - v_rcutlj93/2"
variable xhi5_2 equal "v_xhi5 + v_rcutlj93/2"
variable ylo5_2 equal "v_ylo5 - v_rcutlj93/2"
variable yhi5_2 equal "v_yhi5 + v_rcutlj93/2"
variable zlo5_2 equal "v_zlo5 - v_rcutlj93/2"
variable zhi5_2 equal "v_zhi5 + v_rcutlj93/2"

region myprism8 block 11.2274632029607 15.0225367970393 -26.7725367970393 -19.2274632029607 -5.7725367970393 -0.2274632029607
group gprism8 region myprism8
40 atoms in group gprism8

#-------------------------------------------------------------------------#
# Creating the front wing side
#-------------------------------------------------------------------------#
variable xlo5 equal -14.25
variable xhi5 equal -12.0
variable ylo5 equal -26.0
variable yhi5 equal -20.0
variable zlo5 equal -5.0
variable zhi5 equal -1.0

region myprisminside9 block -14.25 -12 -26 -20 -5 -1
variable n_nodes_P_9 equal "(round(v_more*1.8*(6*(2.0)^2)/(PI*v_dx^2)))"
create_atoms 12 random 40 1234 myprisminside9 units box
Created 40 atoms

variable xlo5_2 equal "v_xlo5 - v_rcutlj93/2"
variable xhi5_2 equal "v_xhi5 + v_rcutlj93/2"
variable ylo5_2 equal "v_ylo5 - v_rcutlj93/2"
variable yhi5_2 equal "v_yhi5 + v_rcutlj93/2"
variable zlo5_2 equal "v_zlo5 - v_rcutlj93/2"
variable zhi5_2 equal "v_zhi5 + v_rcutlj93/2"

region myprism9 block -15.0225367970393 -11.2274632029607 -26.7725367970393 -19.2274632029607 -5.7725367970393 -0.2274632029607
group gprism9 region myprism9
40 atoms in group gprism9

#------------------------------------------------------------------------#
# creating the union between the regions
#------------------------------------------------------------------------#

group wheels union gcylinder1 gcylinder2 gcylinder3 gcylinder4
2472 atoms in group wheels
group not_wheels union gprism1 gprism2 gprism3 gprism4 gprism5 gball2 gprism6 gprism7 gprism8 gprism9
2620 atoms in group not_wheels

group aero_group union gprism2 gprism3 gprism4 gprism5 gball2 gprism6 gprism7 gprism8 gprism9
744 atoms in group aero_group
region aero union 9 myprism2 myprism3 myprism4 myprism5 mysphere2 myprism6 myprism7 myprism8 myprism9
group chassis_group union gcylinder1 gcylinder2 gcylinder3 gcylinder4 gprism1
4348 atoms in group chassis_group
region chassis union 5 mycylinder1 mycylinder2 mycylinder3 mycylinder4 myprism1

group surge_group union aero_group chassis_group
5092 atoms in group surge_group
region surge union 2 aero chassis

#------------------------------------------------------------------------#
# Soft Potential
#------------------------------------------------------------------------#
variable softlength equal "0.5*v_rcutlj"
pair_style soft 1.01021584347843
pair_coeff * * 0.0
variable prefactor equal ramp(0,4.14e-8)
fix 1 all adapt 1 pair soft a * * v_prefactor

#------------------------------------------------------------------------#
# Run parameters and set up dump
#------------------------------------------------------------------------#
timestep 0.2
mass * 1.0e-6

variable nbin equal "v_rcutlj / (4/3)"
neighbor 1.51532376521765 bin
neigh_modify delay 0 every 1 check yes
#variable commcutoff equal "v_dx*2"

#dump mydump all atom 10000 out.lammpstrj
thermo 5000

#------------------------------------------------------------------------#
# Computes initial interaction
#------------------------------------------------------------------------#
variable epsilon equal 10.0e-10
variable cutofflj93 equal 7.0

fix wall surge_group wall/region surge lj93 1e-09 1.8 7

fix 3 all langevin 31000000.0 50000.0 100.0 5678

fix 2 all nve

#restart 100000 ParticleRestart

run 100000
  generated 0 of 91 mixed pair_coeff terms from geometric mixing rule
  update every 1 steps, delay 0 steps, check yes
Step Temp E_pair E_mol TotEng Press
0            0            0            0            0            0
Averages over the last 11 of 21 rows, steps 50000 to 100000:
Temp E_pair E_mol TotEng Press
7.91826e+06 2.30492e-06 0 1.06534e-05 3.05023e-12
Loop time of 647.752 on 4 procs for 100000 steps with 5092 atoms

unfix 1
unfix 2
unfix 3
unfix wall

#------------------------------------------------------------------------#
# Phase 2 : annealing
#------------------------------------------------------------------------#

#------------------------------------------------------------------------#
# Soft Potential
#------------------------------------------------------------------------#
variable softlength equal "0.475*v_rcutlj"
pair_style soft 0.959705051304513
pair_coeff * * 4.14e-8

#------------------------------------------------------------------------#
# Computes initial interaction
#------------------------------------------------------------------------#
variable epsilon equal 20.0e-10
variable cutofflj93 equal 7.0

fix wall surge_group wall/region surge lj93 2e-09 1.8 7

fix 3 all langevin 100000.0 5000.0 100.0 5678

fix 2 all nve

run 200000
  generated 0 of 91 mixed pair_coeff terms from geometric mixing rule
Step Temp E_pair E_mol TotEng Press
100000    218390.81            0            0 2.3025679e-07 2.3133759e-14
Averages over the last 21 of 41 rows, steps 200000 to 300000:
Temp E_pair E_mol TotEng Press
28977 4.62454e-08 0 7.67968e-08 6.83281e-13
Loop time of 1070.02 on 4 procs for 200000 steps with 5092 atoms

minimize 0.0 1.0e-8 1000 100000
  generated 0 of 91 mixed pair_coeff terms from geometric mixing rule
Step Temp E_pair E_mol TotEng Press
300000    5231.1956 3.5917594e-08            0 4.143302e-08 6.6679331e-13
Loop time of 5.73822 on 4 procs for 1000 steps with 5092 atoms

Minimization stats:
  Stopping criterion = max iterations
  Energy initial, next-to-last, final =
  Force two-norm initial, final = 8.3566626e-08 8.3465615e-08
  Force max component initial, final = 3.1363101e-09 3.1301201e-09
  Final line search alpha, max atom move = 1 3.1301201e-09
  Iterations, force evaluations = 1000 1000

unfix wall
unfix 2
unfix 3

#-------------------------------------------------------------------------#
# The lb/fluid simulation
#
# The sphere travels through the simulation, being pushed by the fluid
#-------------------------------------------------------------------------#

variable number_all equal count(all)
variable node_mass equal "500000 / v_number_all"
mass 5* 98.1932443047918
variable wheel_mass equal "v_node_mass/1000"
mass *4 0.0981932443047918

variable dx equal 1.0
variable density equal 0.001184

neighbor 0.5 bin
neigh_modify delay 0 every 1 check yes
comm_modify cutoff 3.0

pair_style lj/cut 1.2
pair_coeff * * 0.0 0.0

timestep 0.025

reset_timestep 0

#variable total_force equal 0.2
#variable node_force equal "v_total_force / 178"
#fix drag all addforce 0.0 0.0 0.0

velocity all set 0.0 -7.5.0 0.0 units box

# viscosity of air is 0.0001847

fix   FL all lb/fluid 1 0.0002 0.001184 stencil 2 dx 1 zwall_velocity 0 0
Using a lattice-Boltzmann grid of 96 by 720 by 97 total grid points. (../fix_lb_fluid.cpp:486)
Local Grid Geometry created. (../fix_lb_fluid.cpp:1018)

variable vx equal vcm(all,x)
variable vy equal vcm(all,y)
variable vz equal vcm(all,z)

#dump mydumpvtk all vtk 1000 out*.vtp vx vy vz

fix   2 all lb/viscous

fix 4 not_wheels nve

fix  3 wheels rigid group 4 gcylinder1 gcylinder2 gcylinder3 gcylinder4 force * off off off torque * on off off
  4 rigid bodies with 2472 atoms

fix 5 not_wheels setforce 0.0 0.0 0.0

thermo_style custom step v_number_all v_node_mass f_FL[2] f_5[1] f_5[2] f_5[3]
thermo 100

run 5000

CITE-CITE-CITE-CITE-CITE-CITE-CITE-CITE-CITE-CITE-CITE-CITE-CITE

Your simulation uses code contributions which should be cited:

- fix lb/fluid command:

@Article{Denniston et al.,
 author = {C. Denniston, N. Afrasiabian, M.G. Cole-Andre,F.E. Mackay, S.T.T. Ollila, T. Whitehead},
 title =   {LAMMPS lb/fluid fix version 2: Improved Hydrodynamic Forces Implemented into LAMMPS through a lattice-Boltzmann fluid}, journal = {Comp.~Phys.~Comm.},
 year =    2022,
 volume =  275,
 pages =   {108318}
}

CITE-CITE-CITE-CITE-CITE-CITE-CITE-CITE-CITE-CITE-CITE-CITE-CITE

  generated 0 of 91 mixed pair_coeff terms from geometric mixing rule
  update every 1 steps, delay 0 steps, check yes
Step v_number_all v_node_mass f_FL[2] f_5[1] f_5[2] f_5[3]
0         5092    98.193244    265447.33            0            0            0
Averages over the last 26 of 51 rows, steps 2500 to 5000:
v_number_all v_node_mass f_FL[2] f_5[1] f_5[2] f_5[3]
5092 98.1932 265447 0.0426958 10.1343 1.76573
Loop time of 5880.47 on 4 procs for 5000 steps with 5092 atoms

#-------------------------------------------------------------------------#
