LAMMPS (27 Oct 2021)
# -*- lammps -*-

units           metal
atom_style      atomic
boundary	p p p

read_data	AgCuPancake.data
Reading data file ...
  orthogonal box = (0.0000000 0.0000000 0.0000000) to (30.000000 30.000000 30.000000)
  reading atoms ...
  34 atoms

pair_style	smatb
#   	         NN     p	    q	    a  	    qsi	    cutOff_Start	cutOff_End
pair_coeff	1 1 2.89	10.85	3.18	0.1031	1.1895	4.08707719	5.0056268338740553
pair_coeff	1 2 2.725	10.70	2.805	0.0977	1.2275	4.08707719	4.4340500673763259
pair_coeff	2 2 2.56	10.55	2.43	0.0894	1.2799	3.62038672	4.4340500673763259

neighbor	8.0 bin
neigh_modify	every 1 delay 0 check yes

thermo          1
minimize       1.0e-8 1.0e-10 10000 100000
  update every 1 steps, delay 0 steps, check yes
Step Temp E_pair E_mol TotEng Press
0            0   -90.165962            0   -90.165962   0.15999216
Loop time of 6.8907e-05 on 1 procs for 1 steps with 34 atoms

Minimization stats:
  Stopping criterion = energy tolerance
  Energy initial, next-to-last, final =
  Force two-norm initial, final = 0.0024917172 0.0017840646
  Force max component initial, final = 0.00098891473 0.00054742198
  Final line search alpha, max atom move = 1.0000000 0.00054742198
  Iterations, force evaluations = 1 2

velocity            all create 600.0 761341 rot yes mom yes

fix		1 all nve
thermo		10
timestep	0.005

#dump		1 all atom 50 dump.smatb

#dump		2 all image 10 image.*.jpg element element #		axes yes 0.8 0.02 view 60 -30
#dump_modify	2 pad 3 element Si C

#dump		3 all movie 10 movie.mpg element element #		axes yes 0.8 0.02 view 60 -30
#dump_modify	3 pad 3 element Si C

run		10000
Step Temp E_pair E_mol TotEng Press
1          600   -90.165962            0   -87.606611    101.26402
Averages over the last 501 of 1002 rows, steps 5010 to 10001:
Temp E_pair E_mol TotEng Press
292.218 -88.8486 0 -87.6021 -0.816888
Loop time of 0.17839 on 1 procs for 10000 steps with 34 atoms
