LAMMPS (17 Feb 2022)
#===========================================================================#
# Large colloidal sphere difusing around.                                   #
#                                                                           #
# In the first stage, the sphere is constructed by condensing atoms onto    #
# the surface of a spherical region. There are a flag you can change to     #
# either bond atoms into a spherical shell or integrate them as a rigid body#
#                                                                           #
# To run this example, LAMMPS needs to be compiled with a the following     #
# packages: RIGID, LATBOTLZ                                                 #
#                                                                           #
# If you uncomment the "dump..." line, sample output from this run          #
# can be found in the file:                                                 #
#   'dump.trapnewsphere.lammpstrj'                                          #
# and viewed using, e.g., the VMD software.                                 #
#                                                                           #
#===========================================================================#

units nano
dimension 3
boundary p p p

region mybox block -24 24 -24 24 -24 24

# flag indicating whether sphere will be bonded or rigid, 0 or 1
variable is_bonded equal 0
# timestep for the LB run (setup uses different timesteps)
variable tstep equal 0.00025
# number of stencil points in any direction.  could be 2, 3, or 4
variable stpts equal 2

create_box 1 mybox
Created orthogonal box = (-24 -24 -24) to (24 24 24)

#----------------------------------------------------------------------------
# Create a spherical region and then fill it with atoms
#----------------------------------------------------------------------------
region mysphereinside sphere 0 0 0 4.0

#variable n_nodes equal 216
variable n_nodes equal 284
create_atoms 1 random 284 1234 mysphereinside units box
Created 284 atoms

pair_style soft 1.0
pair_coeff * * 0.0
variable prefactor equal ramp(0,30)
fix 1 all adapt 1 pair soft a * * v_prefactor

mass * 1.0

#----------------------------------------------------------------------------
# Set up and do an initial run to push the atoms apart as the random creation
#   could have them overlapping too much for stability.
#----------------------------------------------------------------------------
timestep 0.002

# Define sphere where minimum of wall potential is at r=4 so
# regions is 4 + (2/5)^(1/6) sigma
region mysphere sphere 0 0 0 5.28756
fix wall all wall/region mysphere lj93 15.0 1.5 5.28

fix 2 all nve

#dump mydump all atom 10000 dump.trapnewsphere.lammpstrj

run 20000
  generated 0 of 0 mixed pair_coeff terms from geometric mixing rule
  update every 1 steps, delay 10 steps, check yes
Step Temp E_pair E_mol TotEng Press
0            0            0            0            0            0
Loop time of 0.573686 on 4 procs for 20000 steps with 284 atoms

unfix wall
fix wall all wall/region mysphere lj93 50.0 1.5 5.68

unfix 1

#----------------------------------------------------------------------------
# Do a run to condense the atoms onto the spherical surface and anneal them
#   so they will be orderly aranged onto a semi-triangular mesh on the sphere
#----------------------------------------------------------------------------
pair_style lj/cut 1.68359
#pair_coeff * * 0.002 1.5 1.68369
pair_coeff * * 0.0005 1.5 1.68369

fix 3 all langevin 1.5 0.01 100.0 5678

neighbor 0.3 bin
neigh_modify delay 0 every 1 check yes
comm_modify cutoff 2.5

run 500000
  generated 0 of 0 mixed pair_coeff terms from geometric mixing rule
  update every 1 steps, delay 0 steps, check yes
Step Temp E_pair E_mol TotEng Press
20000    317.05614    626.83186            0    2485.0538  0.034256287
Loop time of 12.8226 on 4 procs for 500000 steps with 284 atoms

minimize 0.0 1.0e-8 1000 100000
  generated 0 of 0 mixed pair_coeff terms from geometric mixing rule
Step Temp E_pair E_mol TotEng Press
520000   0.20789564    780.54747            0    781.76592  0.028916791
Loop time of 0.00296133 on 4 procs for 4 steps with 284 atoms

Minimization stats:
  Stopping criterion = linesearch alpha is zero
  Energy initial, next-to-last, final =
  Force two-norm initial, final = 40.166574 13.723713
  Force max component initial, final = 4.2404394 1.5423956
  Final line search alpha, max atom move = 6.0381565e-11 9.3132257e-11
  Iterations, force evaluations = 4 69

unfix wall
unfix 2
unfix 3

#----------------------------------------------------------------------------
# If bonded, bond the atoms together at something close to their current
#   configuration
#----------------------------------------------------------------------------

variable total_mass equal 0.002398
variable node_mass equal "v_total_mass / v_n_nodes"
mass * 8.44366197183099e-06

pair_style lj/cut 1.2
pair_coeff * * 0.0 0.0

timestep 0.00025

#----------------------------------------------------------------------------
# You could uncomment the following lines and then turn off the noise and
#   comment out the trap (following) to instead do a run that drags the
#   sphere through the fluid to measure the drag force.
#----------------------------------------------------------------------------
#variable total_force equal 8.0
#variable node_force equal "v_total_force / v_n_nodes"
#variable oscillateY equal cos(step*0.0005)/(-0.004+50*v_tstep)/v_n_nodes
#variable oscillateZ equal cos(step*0.0003)/(-0.004+50*v_tstep)/v_n_nodes

#----------------------------------------------------------------------------
# Trap the sphere along x (could be done experimentally using optical
#    tweezers.
#----------------------------------------------------------------------------
variable fx atom -x*4.14195/284.0
fix trap all addforce v_fx 0.0 0.0  # needs to go before fix lb/fluid and lb/viscous

#----------------------------------------------------------------------------
# Set up the lb/fluid parameters for water and at a temperature of 300 K.  If
#   the colloid is integrated with the rigid fix, the dof are not
#   automatically calculated correctly but as this would then be a rigid
#   sphere it is clear it should have 6 degrees of freedom.
#----------------------------------------------------------------------------
fix   FL all lb/fluid 1 1.0 0.0009982071 stencil 2 dx 1.2 noise 300.0 181920 dof 6
Using a lattice-Boltzmann grid of 40 by 40 by 40 total grid points. (../fix_lb_fluid.cpp:486)
Local Grid Geometry created. (../fix_lb_fluid.cpp:1018)

fix   2 all lb/viscous

fix   3 all rigid group 1 all
  1 rigid bodies with 284 atoms

#equilibration run
run 10000

CITE-CITE-CITE-CITE-CITE-CITE-CITE-CITE-CITE-CITE-CITE-CITE-CITE

Your simulation uses code contributions which should be cited:

- fix lb/fluid command:

@Article{Denniston et al.,
 author = {C. Denniston, N. Afrasiabian, M.G. Cole-Andre,F.E. Mackay, S.T.T. Ollila, T. Whitehead},
 title =   {LAMMPS lb/fluid fix version 2: Improved Hydrodynamic Forces Implemented into LAMMPS through a lattice-Boltzmann fluid}, journal = {Comp.~Phys.~Comm.},
 year =    2022,
 volume =  275,
 pages =   {108318}
}

CITE-CITE-CITE-CITE-CITE-CITE-CITE-CITE-CITE-CITE-CITE-CITE-CITE

  generated 0 of 0 mixed pair_coeff terms from geometric mixing rule
Step Temp E_pair E_mol TotEng Press
520004 8.9102565e-07            0            0 1.8452924e-08 6.7761632e-05
Loop time of 238.57 on 4 procs for 10000 steps with 284 atoms

# data gathering run
reset_timestep 0

#----------------------------------------------------------------------------
# Create variables containing the positions/velocity of the colloids center
#   of mass.
#----------------------------------------------------------------------------
variable cmx equal xcm(all,x)
variable cmy equal xcm(all,y)
variable cmz equal xcm(all,z)

variable vcmx equal vcm(all,x)
variable vcmy equal vcm(all,y)
variable vcmz equal vcm(all,z)

variable comdatafile string trap_n284_st2_dt0.00025.out

run 10000
  generated 0 of 0 mixed pair_coeff terms from geometric mixing rule
Step Temp E_pair E_mol TotEng Press
0     3.474402            0            0  0.071954018   0.00181615
Loop time of 237.772 on 4 procs for 10000 steps with 284 atoms

#run 25000000
