# select temperature and pressure (lattice constant)

variable temp index 1477.0                 # temperature of initial sample
variable a index 5.457                     # lattice constant

# select sampling parameters, important for speed/convergence

variable nthermo index 1500               # interval for thermo output
variable nevery index 10                  # stress sampling interval
variable neveryborn index 100             # Born sampling interval
variable timestep index 0.000766          # timestep
variable nlat index 3                     # number of lattice unit cells

# other settings

variable mass1 index 28.06                # mass
variable tdamp index 0.01                 # time constant for thermostat
variable seed index 123457                # seed for thermostat
variable thermostat index 1               # 0 if NVE, 1 if NVT
variable delta index 1.0e-6               # Born numdiff strain magnitude

# hard-coded rules-of-thumb for run length, etc.

variable nfreq equal 1500
variable nrepeat equal floor(1500/10)
variable nrepeatborn equal floor(1500/100)
variable nequil equal 10*1500
variable nrun equal 100*1500

# this generates a general triclinic cell
# conforming to LAMMPS cell (upper triangular)

units		metal
box 		tilt large

# unit lattice vectors are
# a1 = (a1x 0 0)
# a2 = (a2x a2y 0)
# a3 = (a3x a3y a3z)

variable        a1x index 1
variable 	a2x index 0
variable 	a2y index 1
variable 	a3x index 0
variable 	a3y index 0
variable	a3z index 1
variable	atmp equal $a
variable	atmp equal 5.457
variable 	l index $a
variable 	l index 5.457
variable	basis index "basis 0    0    0  basis 0.25 0.25 0.25 basis 0    0.5  0.5 basis 0.25 0.75 0.75 basis 0.5  0    0.5 basis 0.75 0.25 0.75 basis 0.5  0.5  0 basis 0.75 0.75 0.25"
lattice         custom 3.8586817049349893                             a1 1.0      0      0                 a2 0.4999999999999999 0.8660254037844385      0                 a3 0.5 0.2886751345948129 0.8164965809277259                 basis 0 0 0 basis 0.25 0.25 0.25     		spacing 1 1 1
Lattice spacing in x,y,z = 3.8586817 3.8586817 3.8586817

region		box prism 0 1.0 0 0.8660254037844385 0 0.8164965809277259 0.4999999999999999 0.5 0.2886751345948129

create_box	1 box
Created triclinic box = (0 0 0) to (3.8586817 3.3417164 3.1506004) with tilt (1.9293409 1.9293409 1.1139055)
create_atoms	1 box
Created 2 atoms
mass 1 28.06
replicate 5 5 5
Replicating atoms ...
  triclinic box = (0 0 0) to (19.293409 16.708582 15.753002) with tilt (9.6467043 9.6467043 5.5695273)
  250 atoms
  replicate CPU = 0.000 seconds
velocity	all create 1477.0 87287

# Compute initial state

include potential.in
# NOTE: This script can be modified for different pair styles
# See in.elastic for more info.

reset_timestep 0

# Choose potential
pair_style	sw
pair_coeff * * Si.sw Si
Reading sw potential file Si.sw with DATE: 2007-06-11

# Setup neighbor style
neighbor 1.0 nsq
neigh_modify once no every 1 delay 0 check yes

# Setup MD

timestep 0.000766
fix 4 all nve
fix 5 all langevin 1477.0 1477.0 0.01 123457

thermo_style custom step temp pe press density
run 15000
  update every 1 steps, delay 0 steps, check yes
Step          Temp          PotEng         Press         Density
0   1477          -1083.8249     -4258.3947      2.2938491
Loop time of 1.93162 on 4 procs for 15000 steps with 250 atoms

# Run dynamics

include potential.in
# NOTE: This script can be modified for different pair styles
# See in.elastic for more info.

reset_timestep 0

# Choose potential
pair_style	sw
pair_coeff * * Si.sw Si
Reading sw potential file Si.sw with DATE: 2007-06-11

# Setup neighbor style
neighbor 1.0 nsq
neigh_modify once no every 1 delay 0 check yes

# Setup MD

timestep 0.000766
fix 4 all nve
fix 5 all langevin 1477.0 1477.0 0.01 123457

include output.in
# Setup output

# Stress fluctuation term F

compute stress all pressure thermo_temp
variable s1 equal c_stress[1]
variable s2 equal c_stress[2]
variable s3 equal c_stress[3]
variable s4 equal c_stress[6]
variable s5 equal c_stress[5]
variable s6 equal c_stress[4]

variable s11 equal v_s1*v_s1
variable s22 equal v_s2*v_s2
variable s33 equal v_s3*v_s3
variable s44 equal v_s4*v_s4
variable s55 equal v_s5*v_s5
variable s66 equal v_s6*v_s6
variable s33 equal v_s3*v_s3
variable s12 equal v_s1*v_s2
variable s13 equal v_s1*v_s3
variable s14 equal v_s1*v_s4
variable s15 equal v_s1*v_s5
variable s16 equal v_s1*v_s6
variable s23 equal v_s2*v_s3
variable s24 equal v_s2*v_s4
variable s25 equal v_s2*v_s5
variable s26 equal v_s2*v_s6
variable s34 equal v_s3*v_s4
variable s35 equal v_s3*v_s5
variable s36 equal v_s3*v_s6
variable s45 equal v_s4*v_s5
variable s46 equal v_s4*v_s6
variable s56 equal v_s5*v_s6

variable mytemp equal temp
variable mypress equal press
variable mype equal pe/atoms
fix avt all ave/time 10 150 1500 v_mytemp ave running
fix avp all ave/time 10 150 1500 v_mypress ave running
fix avpe all ave/time 10 150 1500 v_mype ave running
fix avs all ave/time 10 150 1500 v_s1 v_s2 v_s3 v_s4 v_s5 v_s6 ave running
fix avssq all ave/time 10 150 1500 v_s11 v_s22 v_s33 v_s44 v_s55 v_s66 v_s12 v_s13 v_s14 v_s15 v_s16 v_s23 v_s24 v_s25 v_s26 v_s34 v_s35 v_s36 v_s45 v_s46 v_s56 ave running

# bar to GPa
variable pconv equal 1.0e5/1.0e9
variable cunits index GPa
# metal unit constants from LAMMPS
# force->nktv2p = 1.6021765e6;
# force->boltz = 8.617343e-5;
variable boltz equal 8.617343e-5
variable nktv2p equal 1.6021765e6
variable vkt equal vol/(8.617343e-05*1477.0)/1602176.5
variable ffac equal 0.0001*0.0249027696047235

variable F11 equal -(f_avssq[1]-f_avs[1]*f_avs[1])*2.49027696047235e-06
variable F22 equal -(f_avssq[2]-f_avs[2]*f_avs[2])*2.49027696047235e-06
variable F33 equal -(f_avssq[3]-f_avs[3]*f_avs[3])*2.49027696047235e-06
variable F44 equal -(f_avssq[4]-f_avs[4]*f_avs[4])*2.49027696047235e-06
variable F55 equal -(f_avssq[5]-f_avs[5]*f_avs[5])*2.49027696047235e-06
variable F66 equal -(f_avssq[6]-f_avs[6]*f_avs[6])*2.49027696047235e-06

variable F12 equal -(f_avssq[7]-f_avs[1]*f_avs[2])*2.49027696047235e-06
variable F13 equal -(f_avssq[8]-f_avs[1]*f_avs[3])*2.49027696047235e-06
variable F14 equal -(f_avssq[9]-f_avs[1]*f_avs[4])*2.49027696047235e-06
variable F15 equal -(f_avssq[10]-f_avs[1]*f_avs[5])*2.49027696047235e-06
variable F16 equal -(f_avssq[11]-f_avs[1]*f_avs[6])*2.49027696047235e-06

variable F23 equal -(f_avssq[12]-f_avs[2]*f_avs[3])*2.49027696047235e-06
variable F24 equal -(f_avssq[13]-f_avs[2]*f_avs[4])*2.49027696047235e-06
variable F25 equal -(f_avssq[14]-f_avs[2]*f_avs[5])*2.49027696047235e-06
variable F26 equal -(f_avssq[15]-f_avs[2]*f_avs[6])*2.49027696047235e-06

variable F34 equal -(f_avssq[16]-f_avs[3]*f_avs[4])*2.49027696047235e-06
variable F35 equal -(f_avssq[17]-f_avs[3]*f_avs[5])*2.49027696047235e-06
variable F36 equal -(f_avssq[18]-f_avs[3]*f_avs[6])*2.49027696047235e-06

variable F45 equal -(f_avssq[19]-f_avs[4]*f_avs[5])*2.49027696047235e-06
variable F46 equal -(f_avssq[20]-f_avs[4]*f_avs[6])*2.49027696047235e-06

variable F56 equal -(f_avssq[21]-f_avs[5]*f_avs[6])*2.49027696047235e-06

# Born term

compute     virial all pressure NULL virial
compute     born all born/matrix numdiff 1.0e-6 virial
fix 	    avborn all ave/time 100 15 1500 c_born[*] ave running

variable bfac equal 0.0001*1602176.5/vol
variable B vector f_avborn*0.0315499354029305

# Kinetic term

variable kfac equal 0.0001*1602176.5*atoms*8.617343e-05*1477.0/vol
variable K11 equal 4.0*1.00390440086865
variable K22 equal 4.0*1.00390440086865
variable K33 equal 4.0*1.00390440086865
variable K44 equal 2.0*1.00390440086865
variable K55 equal 2.0*1.00390440086865
variable K66 equal 2.0*1.00390440086865

# Add F, K, and B together

variable C11 equal v_F11+v_B[1]+v_K11
variable C22 equal v_F22+v_B[2]+v_K22
variable C33 equal v_F33+v_B[3]+v_K33
variable C44 equal v_F44+v_B[4]+v_K44
variable C55 equal v_F55+v_B[5]+v_K55
variable C66 equal v_F66+v_B[6]+v_K66

variable C12 equal v_F12+v_B[7]
variable C13 equal v_F13+v_B[8]
variable C14 equal v_F14+v_B[9]
variable C15 equal v_F15+v_B[10]
variable C16 equal v_F16+v_B[11]

variable C23 equal v_F23+v_B[12]
variable C24 equal v_F24+v_B[13]
variable C25 equal v_F25+v_B[14]
variable C26 equal v_F26+v_B[15]

variable C34 equal v_F34+v_B[16]
variable C35 equal v_F35+v_B[17]
variable C36 equal v_F36+v_B[18]

variable C45 equal v_F45+v_B[19]
variable C46 equal v_F46+v_B[20]

variable C56 equal v_F56+v_B[21]

thermo		1500
thermo_style custom step temp pe press density f_avt f_avp f_avpe v_F11 v_F22 v_F33 v_F44 v_F55 v_F66 v_F12 v_F13 v_F23 v_B[*8] v_B[12]

thermo_modify norm no

run 150000
Step          Temp          PotEng         Press         Density         f_avt          f_avp          f_avpe         v_F11          v_F22          v_F33          v_F44          v_F55          v_F66          v_F12          v_F13          v_F23          v_B[1]         v_B[2]         v_B[3]         v_B[4]         v_B[5]         v_B[6]         v_B[7]         v_B[8]        v_B[12]
0   1496.4515     -1030.8279      1702.5821      2.2938491      0              0              0             -0             -0             -0             -0             -0             -0             -0             -0             -0              0              0              0              0              0              0              0              0              0
Averages over the last 51 of 101 rows, steps 75000 to 150000:
Temp PotEng Press Density f_avt f_avp f_avpe v_F11 v_F22 v_F33 v_F44 v_F55 v_F66 v_F12 v_F13 v_F23 v_B[1] v_B[2] v_B[3] v_B[4] v_B[5] v_B[6] v_B[7] v_B[8] v_B[12]
1477.35 -1032.56 -97.9805 2.29385 1482.73 5.25845 -4.1308 -61.8057 -60.2694 -78.2836 -21.2828 -20.7672 -37.7654 17.2878 35.5911 33.9129 205.299 205.439 228.406 53.8878 53.8741 76.8305 51.7337 28.7866 28.8124
Loop time of 23.1063 on 4 procs for 150000 steps with 250 atoms

# Output final values

include final_output.in
# Average moduli for cubic crystals

variable C11cubic equal (148.370873646034+149.679104177467+154.839963498785)/3.0
variable C12cubic equal (68.4935246016777+63.7218992685599+62.7910539636263)/3.0
variable C44cubic equal (34.8846541689484+35.1274361331555+40.8641262264389)/3.0

variable bulkmodulus equal (150.963313774095+2*65.0021592779546)/3.0
variable shearmodulus1 equal 36.9587388428476
variable shearmodulus2 equal (150.963313774095-65.0021592779546)/2.0
variable poissonratio equal 1.0/(1.0+150.963313774095/65.0021592779546)

# For Stillinger-Weber silicon, the analytical results
# are known to be (E. R. Cowley, 1988):
#               C11 = 151.4 GPa
#               C12 = 76.4 GPa
#               C44 = 56.4 GPa

#print "========================================="
#print "Components of the Elastic Constant Tensor"
#print "========================================="

Elastic Constant C11 = 148.370873646034 GPa
Elastic Constant C22 = 149.679104177467 GPa
Elastic Constant C33 = 154.839963498785 GPa

Elastic Constant C12 = 68.4935246016777 GPa
Elastic Constant C13 = 63.7218992685599 GPa
Elastic Constant C23 = 62.7910539636263 GPa

Elastic Constant C44 = 34.8846541689484 GPa
Elastic Constant C55 = 35.1274361331555 GPa
Elastic Constant C66 = 40.8641262264389 GPa

Elastic Constant C14 = 6.92404731313863 GPa
Elastic Constant C15 = -0.241854528091832 GPa
Elastic Constant C16 = -0.348583506816062 GPa

Elastic Constant C24 = -8.12880441353851 GPa
Elastic Constant C25 = 0.489292435379784 GPa
Elastic Constant C26 = 0.823159952503936 GPa

Elastic Constant C34 = 0.696244884461012 GPa
Elastic Constant C35 = 0.0721961245198595 GPa
Elastic Constant C36 = -0.201416093587799 GPa

Elastic Constant C45 = -0.310665193707046 GPa
Elastic Constant C46 = -0.491041219509184 GPa
Elastic Constant C56 = 7.93280717781775 GPa

print "========================================="
=========================================
print "Average properties for a cubic crystal"
Average properties for a cubic crystal
print "========================================="
=========================================

Bulk Modulus = 93.6558774433347 GPa
Shear Modulus 1 = 36.9587388428476 GPa
Shear Modulus 2 = 42.9805772480702 GPa
Poisson Ratio = 0.300984033972359

# summarize sampling protocol

variable tmp equal atoms
Number of atoms = 250
Stress sampling interval = 10
variable tmp equal 150000/10
Stress sample count = 15000
Born sampling interval = 100
variable tmp equal 150000/100
Born sample count = 1500
